1000 300 0
0 300 0 10 0
0.1 300.000305810553 0 10 0
0.160723065020908 300.000491508247 0 10 0
0.224482283292861 300.000686490948 0 10 0
0.291429462478412 300.000891222922 0 10 0
0.361724000623241 300.001106191644 0 10 0
0.435533265675311 300.001331908968 0 10 0
0.513032993979984 300.001568912341 0 10 0
0.594407708699891 300.001817766084 0 10 0
0.679851159155793 300.002079062737 0 10 0
0.769566782134491 300.002353424467 0 10 0
0.863768186262123 300.002641504554 0 10 0
0.962679660596138 300.002943988942 0 10 0
1.06653670864685 300.003261597879 0 10 0
1.1755866091001 300.003595087624 0 10 0
1.29008900457602 300.003945252255 0 10 0
1.41031651982572 300.004312925558 0 10 0
1.53655541083792 300.004698983011 0 10 0
1.66910624640072 300.005104343871 0 10 0
1.80828462374167 300.005529973364 0 10 0
1.95442191994966 300.005976884981 0 10 0
2.10786608096805 300.006446142896 0 10 0
2.26898245003736 300.006938864496 0 10 0
2.43815463756014 300.007456223047 0 10 0
2.61578543445905 300.007999450486 0 10 0
2.80229777120291 300.008569840356 0 10 0
2.99813572478396 300.009168750886 0 10 0
3.20376557604407 300.00979760823 0 10 0
3.41967691986718 300.010457909859 0 10 0
3.64638383088145 300.011151228134 0 10 0
3.88442608744643 300.011879214047 0 10 0
4.13437045683966 300.012643601157 0 10 0
4.39681204470255 300.013446209719 0 10 0
4.67237571195859 300.014288951019 0 10 0
4.96171756257742 300.015173831933 0 10 0
5.2655265057272 300.016102959701 0 10 0
5.58452589603447 300.017078546954 0 10 0
5.9194752558571 300.018102916984 0 10 0
6.27117208367086 300.01917850928 0 10 0
6.64045375287532 300.02030788534 0 10 0
7.02819950553999 300.02149373478 0 10 0
7.4353325458379 300.022738881736 0 10 0
7.8628222381507 300.024046291601 0 10 0
8.31168641507915 300.025419078091 0 10 0
8.78299380085401 300.026860510666 0 10 0
9.27786655591762 300.028374022323 0 10 0
9.79748294873441 300.02996321778 0 10 0
10.343080161192 300.03163188207 0 10 0
10.9159572342726 300.033383989562 0 10 0
11.5174781610071 300.03522371344 0 10 0
12.1490751340783 300.037155435654 0 10 0
12.8122519558032 300.039183757364 0 10 0
13.5085876186142 300.041313509916 0 10 0
14.2397400645659 300.043549766366 0 10 0
15.0074501328151 300.045897853577 0 10 0
15.8135457044767 300.048363364926 0 10 0
16.6599460547215 300.050952173646 0 10 0
17.5486664224785 300.053670446841 0 10 0
18.4818228086233 300.056524660199 0 10 0
19.4616370140754 300.059521613446 0 10 0
20.4904419298 300.062668446572 0 10 0
21.5706870913109 300.065972656871 0 10 0
22.7049445108974 300.069442116846 0 10 0
23.8959148014632 300.073085092993 0 10 0
25.1464336065572 300.076910265546 0 10 0
26.459478351906 300.080926749207 0 10 0
27.8381753345222 300.08514411491 0 10 0
29.2858071662692 300.089572412689 0 10 0
30.8058205896036 300.094222195688 0 10 0
32.4018346841047 300.099104545376 0 10 0
34.0776494833309 300.104231098039 0 10 0
35.8372550225183 300.109614072588 0 10 0
37.6848408386651 300.115266299782 0 10 0
39.6248059456193 300.121201252906 0 10 0
41.6617693079212 300.127433080003 0 10 0
43.8005808383381 300.133976637721 0 10 0
46.046332945276 300.14084752687 0 10 0
48.4043726575607 300.148062129764 0 10 0
50.8803143554596 300.155637649446 0 10 0
53.4800531382535 300.163592150892 0 10 0
56.2097788601871 300.171944604288 0 10 0
59.0759908682173 300.180714930494 0 10 0
62.0855134766491 300.189924048799 0 10 0
65.2455122155025 300.199593927083 0 10 0
68.5635108912985 300.209747634525 0 10 0
72.0474095008844 300.220409396956 0 10 0
75.7055030409495 300.231604655027 0 10 0
79.5465012580179 300.243360125306 0 10 0
83.5795493859397 300.255703864478 0 10 0
87.8142499202576 300.268665336786 0 10 0
92.2606854812914 300.282275484895 0 10 0
96.9294428203768 300.29656680435 0 10 0
101.831638026417 300.311573421807 0 10 0
106.978942992758 300.32733117724 0 10 0
112.383613207417 300.343877710322 0 10 0
118.058516932809 300.361252551202 0 10 0
124.01716584447 300.3794972159 0 10 0
130.273747201715 300.39865530656 0 10 0
136.843157626821 300.418772616821 0 10 0
143.741038573183 300.439897242553 0 10 0
150.983813566863 300.462079698262 0 10 0
158.588727310228 300.485373039445 0 10 0
166.57388674076 300.509832991201 0 10 0
174.958304142819 300.535518083443 0 10 0
183.761942414981 300.562489793045 0 10 0
193.005762600751 300.590812693291 0 10 0
202.711773795809 300.620554611012 0 10 0
212.90308555062 300.651786791824 0 10 0
223.603962893172 300.684584073882 0 10 0
234.839884102852 300.719025070621 0 10 0
246.637601373015 300.755192362945 0 10 0
259.025204506687 300.793172701387 0 10 0
272.032187797042 300.833057218757 0 10 0
285.689520251915 300.874941653865 0 10 0
300.029719329532 300.918926586887 0 10 0
315.086928361029 300.965117687037 0 10 0
330.896997844102 301.013625973195 0 10 0
347.497570801328 301.064568088193 0 10 0
364.928172406415 301.118066587535 0 10 0
383.230304091757 301.174250243313 0 10 0
402.447542361366 301.233254364182 0 10 0
422.625642544455 301.29522113227 0 10 0
443.812647736698 301.360299957982 0 10 0
466.059003188554 301.428647853691 0 10 0
489.417676413003 301.500429827374 0 10 0
513.944283298674 301.575819297339 0 10 0
539.697220528629 301.654998529233 0 10 0
566.737804620081 301.738159096591 0 10 0
595.130417916106 301.825502366315 0 10 0
624.942661876932 301.917240010488 0 10 0
656.2455180358 302.013594546083 0 10 0
689.113517002611 302.114799904181 0 10 0
723.624915917762 302.221102030456 0 10 0
759.861884778671 302.332759518767 0 10 0
797.910702082626 302.450044279837 0 10 0
837.861960251778 302.573242247137 0 10 0
879.810781329388 302.702654122226 0 10 0
923.857043460878 302.838596161948 0 10 0
970.105618698943 302.981401010067 0 10 0
1018.66662269891 303.131418576098 0 10 0
1069.65567689888 303.289016964272 0 10 0
1123.19418380884 303.454583455798 0 10 0
1179.40961606431 303.628525547815 0 10 0
1238.43581993254 303.811272052652 0 10 0
1300.41333399419 304.003274261307 0 10 0
1365.48972375892 304.20500717532 0 10 0
1433.81993301189 304.416970811561 0 10 0
1505.5666527275 304.639691584752 0 10 0
1580.9007084289 304.873723772962 0 10 0
1660.00146691536 305.119651071676 0 10 0
1743.05726332615 305.378088242506 0 10 0
1830.26584955748 305.649682863082 0 10 0
1921.83486510038 305.935117185178 0 10 0
2017.98233142042 306.235110108722 0 10 0
2118.93717105646 306.550419279929 0 10 0
2224.9397526743 306.881843322521 0 10 0
2336.24246337304 307.230224211701 0 10 0
2453.11030960671 307.59644980141 0 10 0
2575.82154815207 307.981456516271 0 10 0
2704.66834862469 308.386232220612 0 10 0
2839.95748912095 308.811819278049 0 10 0
2982.01108664202 309.259317816308 0 10 0
3131.16736403914 309.729889213266 0 10 0
3287.78145530612 310.224759821641 0 10 0
3452.22625113645 310.745224951361 0 10 0
3624.89328675829 311.292653130385 0 10 0
3806.19367416122 311.868490666714 0 10 0
3996.55908093431 312.47426653646 0 10 0
4196.44275804604 313.111597625229 0 10 0
4406.32061901337 313.782194352696 0 10 0
4626.69237302906 314.487866713194 0 10 0
4858.08271474553 315.230530768355 0 10 0
5101.04257354783 316.012215631462 0 10 0
5356.15042529024 316.835070987167 0 10 0
5624.01366961977 317.701375194693 0 10 0
5905.27007616578 318.613544027622 0 10 0
6200.58930303909 319.574140108901 0 10 0
6510.67449125607 320.585883105897 0 10 0
6836.26393888389 321.651660757288 0 10 0
7178.13285889311 322.774540811279 0 10 0
7537.09522490278 323.957783963396 0 10 0
7914.00570921294 325.204857891787 0 10 0
8309.76171773861 326.519452498994 0 10 0
8725.30552669056 327.905496481415 0 10 0
9161.62652609011 329.367175361605 0 10 0
9619.76357545964 330.908951134176 0 10 0
10100.8074772976 332.535583693757 0 10 0
10605.9035742275 334.25215423341 0 10 0
11136.2544760039 336.064090824536 0 10 0
11693.1229228692 337.977196414921 0 10 0
12277.8347920776 339.997679510655 0 10 0
12891.7822547466 342.132187840735 0 10 0
13536.4270905489 344.387845340804 0 10 0
14213.3041681414 346.772292835399 0 10 0
14924.0250996135 349.29373284709 0 10 0
15670.2820776592 351.960979016934 0 10 0
16453.8519046071 354.783510684875 0 10 0
17276.6002229025 357.77153325238 0 10 0
18140.4859571127 360.936045034252 0 10 0
19047.5659780333 364.288911404021 0 10 0
20000 367.84294714969 0 10 0
